* DRR1VWM4S D model
* PKG: PMDE,Vr=400V,Io=1A
* Model Generated by ROHM
* All Rights Reserved
* Commercial Use or 
* Resale Restricted
* Date: 2016/11/29
.MODEL DRR1VWM4S D
+ IS=5.3269E-9
+ N=1.9284
+ RS=.10815
+ IKF=.84447
+ EG=1.0900
+ CJO=6.6189E-12
+ M=.3765
+ VJ=.50121
+ ISR=262.70E-12
+ NR=4.3000
+ BV=400.00
+ TT=2.0802E-6
+ TRS1=1.2000E-3
+ TIKF=0.0060